Circuit: * C:\Users\user\Documents\GitHub\ee209-2021-project-team04\FInalImplementation\Hardware\Final Analog Design.asc

Early termination of direct N-R iteration.
Direct Newton iteration failed to find .op point.  (Use ".option noopiter" to skip.)
Starting Gmin stepping
Gmin = 10
vernier = 0.5
vernier = 0.25
vernier = 0.125
Gmin = 7.86666
vernier = 0.0625
vernier = 0.03125
vernier = 0.015625
vernier = 0.0078125
vernier = 0.00390625
Gmin = 8.09668
vernier = 0.00195313
vernier = 0.000976563
vernier = 0.000488281
Gmin = 0
Gmin stepping failed

Starting source stepping with srcstepmethod=0
Source Step = 3.0303%
Source Step = 33.3333%
Source Step = 63.6364%
Source Step = 63.6512%
Source Step = 63.6808%
Source Step = 63.7103%
Source Step = 63.7399%
Source Step = 63.7695%
vernier = 0.00146484
Source Step = 63.8036%
Source Step = 63.848%
Source Step = 63.8923%
Source Step = 63.9367%
Source Step = 63.9811%
vernier = 0.00219727
Source Step = 64.0299%
Source Step = 64.0965%
Source Step = 64.1631%
Source Step = 64.2297%
Source Step = 64.2963%
vernier = 0.0032959
Source Step = 64.3662%
Source Step = 64.4661%
Source Step = 64.5659%
Source Step = 64.6658%
Source Step = 64.7657%
Source Step = 64.8656%
vernier = 0.00494385
Source Step = 65.0154%
Source Step = 65.1652%
Source Step = 65.315%
Source Step = 65.4648%
Source Step = 65.6146%
vernier = 0.00741577
Source Step = 65.8319%
Source Step = 66.0566%
Source Step = 66.2813%
Source Step = 66.506%
Source Step = 66.7308%
vernier = 0.0111237
Source Step = 67.0454%
Source Step = 67.3824%
Source Step = 67.7195%
Source Step = 68.0566%
Source Step = 68.3937%
vernier = 0.0166855
Source Step = 68.8487%
Source Step = 69.3544%
Source Step = 69.86%
Source Step = 70.3656%
Source Step = 70.8712%
vernier = 0.0250282
Source Step = 71.5285%
Source Step = 72.287%
Source Step = 73.0454%
Source Step = 73.8038%
Source Step = 74.5623%
vernier = 0.0375423
Source Step = 75.5103%
Source Step = 76.6479%
Source Step = 77.7856%
Source Step = 78.9232%
Source Step = 80.0609%
vernier = 0.0563135
Source Step = 81.4261%
Source Step = 83.1325%
Source Step = 84.839%
Source Step = 86.5455%
Source Step = 88.2519%
vernier = 0.0844703
Source Step = 90.2144%
Source Step = 92.7741%
Source Step = 95.3338%
Source Step = 97.8935%
Source stepping succeeded in finding the operating point.


Date: Fri Mar 18 17:00:08 2022
Total elapsed time: 3.584 seconds.

tnom = 27
temp = 27
method = modified trap
totiter = 20692
traniter = 16567
tranpoints = 4861
accept = 3407
rejected = 1454
matrix size = 141
fillins = 1787
solver = Normal
Thread vector: 8.4/6.3[3] 3.0/3.2[1] 3.2/2.8[3] 1.2/1.7[1]  2592/500
Matrix Compiler1: 262.20 KB object code size  34.4/16.4/[7.7]
Matrix Compiler2: 40.89 KB object code size  6.3/6.6/[2.3]

